Build started 1/7/2013 11:48:29 PM.
     1>Project "C:\Users\Jesse\Documents\GitHub\Portfolio\C++\HappyGoLucky\Tester2\Tester2.vcxproj" on node 2 (build target(s)).
     1>InitializeBuildStatus:
         Creating "Debug\HappyGoLucky.unsuccessfulbuild" because "AlwaysCreate" was specified.
       ClCompile:
         C:\Program Files (x86)\Microsoft Visual Studio 10.0\VC\bin\CL.exe /c /ZI /nologo /W3 /WX- /Od /Oy- /D WIN32 /D _DEBUG /D _CONSOLE /D _UNICODE /D UNICODE /Gm /EHsc /RTC1 /MDd /GS /fp:precise /Zc:wchar_t /Zc:forScope /Fo"Debug\\" /Fd"Debug\vc100.pdb" /Gd /TP /analyze- /errorReport:prompt attack.cpp controller.cpp core.cpp data.cpp dependencies.cpp elements.cpp entity.cpp game_data.cpp graphics.cpp GUI.cpp items.cpp main.cpp map.cpp "SAT Collision.cpp" scroll.cpp SDLfunctions.cpp skill.cpp status.cpp timer.cpp
         timer.cpp
         status.cpp
         skill.cpp
         SDLfunctions.cpp
         scroll.cpp
         SAT Collision.cpp
         map.cpp
         main.cpp
         items.cpp
         GUI.cpp
         graphics.cpp
         game_data.cpp
         entity.cpp
         elements.cpp
         dependencies.cpp
         data.cpp
         core.cpp
         controller.cpp
         attack.cpp
         Generating Code...
       ManifestResourceCompile:
         C:\Program Files (x86)\Microsoft SDKs\Windows\v7.0A\bin\rc.exe /nologo /fo"Debug\HappyGoLucky.exe.embed.manifest.res" Debug\HappyGoLucky_manifest.rc 
       Link:
         C:\Program Files (x86)\Microsoft Visual Studio 10.0\VC\bin\link.exe /ERRORREPORT:PROMPT /OUT:"C:\Users\Jesse\Documents\GitHub\Portfolio\C++\HappyGoLucky\Debug\HappyGoLucky.exe" /INCREMENTAL /NOLOGO SDL.lib SDLmain.lib SDL_image.lib kernel32.lib user32.lib gdi32.lib winspool.lib comdlg32.lib advapi32.lib shell32.lib ole32.lib oleaut32.lib uuid.lib odbc32.lib odbccp32.lib /MANIFEST /ManifestFile:"Debug\HappyGoLucky.exe.intermediate.manifest" /MANIFESTUAC:"level='asInvoker' uiAccess='false'" /DEBUG /PDB:"C:\Users\Jesse\Documents\GitHub\Portfolio\C++\HappyGoLucky\Debug\HappyGoLucky.pdb" /SUBSYSTEM:CONSOLE /TLBID:1 /DYNAMICBASE /NXCOMPAT /IMPLIB:"C:\Users\Jesse\Documents\GitHub\Portfolio\C++\HappyGoLucky\Debug\HappyGoLucky.lib" /MACHINE:X86 Debug\HappyGoLucky.exe.embed.manifest.res
         Debug\attack.obj
         Debug\controller.obj
         Debug\core.obj
         Debug\data.obj
         Debug\dependencies.obj
         Debug\elements.obj
         Debug\entity.obj
         Debug\game_data.obj
         Debug\graphics.obj
         Debug\GUI.obj
         Debug\items.obj
         Debug\main.obj
         Debug\map.obj
         "Debug\SAT Collision.obj"
         Debug\scroll.obj
         Debug\SDLfunctions.obj
         Debug\skill.obj
         Debug\status.obj
         Debug\timer.obj
     1>MSVCRTD.lib(cinitexe.obj) : warning LNK4098: defaultlib 'msvcrt.lib' conflicts with use of other libs; use /NODEFAULTLIB:library
       Manifest:
         C:\Program Files (x86)\Microsoft SDKs\Windows\v7.0A\bin\mt.exe /nologo /verbose /out:"Debug\HappyGoLucky.exe.embed.manifest" /manifest Debug\HappyGoLucky.exe.intermediate.manifest
         C:\Program Files (x86)\Microsoft SDKs\Windows\v7.0A\bin\rc.exe /nologo /fo"Debug\HappyGoLucky.exe.embed.manifest.res" Debug\HappyGoLucky_manifest.rc 
       LinkEmbedManifest:
         C:\Program Files (x86)\Microsoft Visual Studio 10.0\VC\bin\link.exe /ERRORREPORT:PROMPT /OUT:"C:\Users\Jesse\Documents\GitHub\Portfolio\C++\HappyGoLucky\Debug\HappyGoLucky.exe" /INCREMENTAL /NOLOGO SDL.lib SDLmain.lib SDL_image.lib kernel32.lib user32.lib gdi32.lib winspool.lib comdlg32.lib advapi32.lib shell32.lib ole32.lib oleaut32.lib uuid.lib odbc32.lib odbccp32.lib /MANIFEST /ManifestFile:"Debug\HappyGoLucky.exe.intermediate.manifest" /MANIFESTUAC:"level='asInvoker' uiAccess='false'" /DEBUG /PDB:"C:\Users\Jesse\Documents\GitHub\Portfolio\C++\HappyGoLucky\Debug\HappyGoLucky.pdb" /SUBSYSTEM:CONSOLE /TLBID:1 /DYNAMICBASE /NXCOMPAT /IMPLIB:"C:\Users\Jesse\Documents\GitHub\Portfolio\C++\HappyGoLucky\Debug\HappyGoLucky.lib" /MACHINE:X86 Debug\HappyGoLucky.exe.embed.manifest.res
         Debug\attack.obj
         Debug\controller.obj
         Debug\core.obj
         Debug\data.obj
         Debug\dependencies.obj
         Debug\elements.obj
         Debug\entity.obj
         Debug\game_data.obj
         Debug\graphics.obj
         Debug\GUI.obj
         Debug\items.obj
         Debug\main.obj
         Debug\map.obj
         "Debug\SAT Collision.obj"
         Debug\scroll.obj
         Debug\SDLfunctions.obj
         Debug\skill.obj
         Debug\status.obj
         Debug\timer.obj
     1>MSVCRTD.lib(cinitexe.obj) : warning LNK4098: defaultlib 'msvcrt.lib' conflicts with use of other libs; use /NODEFAULTLIB:library
         Tester2.vcxproj -> C:\Users\Jesse\Documents\GitHub\Portfolio\C++\HappyGoLucky\Debug\HappyGoLucky.exe
       FinalizeBuildStatus:
         Deleting file "Debug\HappyGoLucky.unsuccessfulbuild".
         Touching "Debug\HappyGoLucky.lastbuildstate".
     1>Done Building Project "C:\Users\Jesse\Documents\GitHub\Portfolio\C++\HappyGoLucky\Tester2\Tester2.vcxproj" (build target(s)).

Build succeeded.

Time Elapsed 00:00:33.07
